34
Lattice="7.299745280000001 -6.2e-07 1.54e-06 -3.69987316 6.4083361 -5.815e-05 2.76e-06 -0.00028249 20.0" Properties=species:S:1:pos:R:3 pbc="T T T"
C        0.05391115       0.72902115       9.99999665
C        1.24596434       1.40765008       9.99999273
C       -1.17937984       2.86513464       9.99997627
C        0.01267318       3.54376266       9.99996931
C       -2.41266908       5.00124801       9.99996136
C       -1.22061587       5.67987651       9.99995461
C        2.48681730       0.72947810       9.99999398
C        3.67964398       1.40635163       9.99998216
C        1.25352394       2.86558755       9.99997540
C        2.44635071       3.54246084       9.99997169
C        0.02023441       5.00170050       9.99996197
C        1.21306129       5.67857384       9.99995289
C        4.92049389       0.72817556       9.99998956
C        6.11254751       1.40680366       9.99998718
C        3.68720291       2.86428893       9.99997892
C        4.87925689       3.54291757       9.99997887
C        2.45391157       5.00039832       9.99995718
C        3.64596563       5.67902710       9.99995038
C       -1.18719777       1.40680428       9.99998564
C        0.04609351      -0.72930838      10.00000699
C       -1.18719777       1.40680428       9.99998564
C       -2.42048839       3.54291819       9.99997733
C       -3.65377965       5.67902772       9.99994884
C       -2.42048839       3.54291819       9.99997733
C       -1.21305586       7.13781420       9.99993583
C        2.47925729      -0.72845959      10.00001276
C        1.22062073       7.13651166       9.99993141
C        4.91293445      -0.72976226      10.00001104
C        7.35365643       0.72902053       9.99999819
C        6.12036544       2.86513402       9.99997781
C        4.88707620       5.00124739       9.99996290
C        6.12036544       2.86513402       9.99997781
C        4.88707620       5.00124739       9.99996290
C        3.65378327       7.13735663       9.99994004
